3
A molecule
H  0.012 0.015 0.000
H  0.816 0.001 0.000
H  0.001 0.784 0.000
3
A molecule
H  0.052 0.064 0.000
H  0.772 0.005 0.000
H  0.005 0.731 0.000
3
A molecule
H  0.131 0.111 0.000
H  0.688 0.015 0.000
H  0.010 0.674 0.000
3
A molecule
H  0.066 0.066 0.000
H  0.764 0.005 0.000
H  -0.001 0.729 0.000
3
A molecule
H  -0.008 0.059 0.000
H  0.843 -0.004 0.000
H  -0.006 0.745 0.000
3
A molecule
H  -0.061 0.096 0.000
H  0.898 -0.009 0.000
H  -0.008 0.713 0.000
3
A molecule
H  -0.109 0.106 0.000
H  0.942 -0.012 0.000
H  -0.004 0.705 0.000
3
A molecule
H  -0.158 0.075 0.000
H  0.979 -0.013 0.000
H  0.007 0.738 0.000
3
A molecule
H  -0.192 0.087 0.000
H  1.012 -0.012 0.000
H  0.009 0.725 0.000
3
A molecule
H  -0.214 0.133 0.000
H  1.041 -0.010 0.000
H  0.001 0.677 0.000
3
A molecule
H  -0.262 0.113 0.000
H  1.068 -0.008 0.000
H  0.022 0.695 0.000
3
A molecule
H  -0.302 0.103 0.000
H  1.092 -0.004 0.000
H  0.038 0.701 0.000
3
A molecule
H  -0.318 0.134 0.000
H  1.115 0.000 0.000
H  0.032 0.666 0.000
3
A molecule
H  -0.336 0.164 0.000
H  1.135 0.005 0.000
H  0.029 0.630 0.000
3
A molecule
H  -0.390 0.145 0.000
H  1.154 0.011 0.000
H  0.065 0.643 0.000
3
A molecule
H  -0.417 0.155 0.000
H  1.171 0.018 0.000
H  0.074 0.626 0.000
3
A molecule
H  -0.412 0.196 0.000
H  1.187 0.026 0.000
H  0.053 0.578 0.000
3
A molecule
H  -0.445 0.208 0.000
H  1.201 0.034 0.000
H  0.072 0.559 0.000
3
A molecule
H  -0.491 0.208 0.000
H  1.214 0.043 0.000
H  0.106 0.549 0.000
3
A molecule
H  -0.496 0.231 0.000
H  1.224 0.052 0.000
H  0.100 0.516 0.000
3
A molecule
H  -0.476 0.268 0.000
H  1.233 0.063 0.000
H  0.071 0.469 0.000
3
A molecule
H  -0.523 0.279 0.000
H  1.240 0.074 0.000
H  0.112 0.447 0.000
3
A molecule
H  -0.547 0.296 0.000
H  1.244 0.086 0.000
H  0.132 0.419 0.000
3
A molecule
H  -0.525 0.321 0.000
H  1.246 0.098 0.000
H  0.108 0.381 0.000
3
A molecule
H  -0.505 0.347 0.000
H  1.246 0.111 0.000
H  0.088 0.341 0.000
3
A molecule
H  -0.543 0.373 0.000
H  1.243 0.125 0.000
H  0.129 0.302 0.000
3
A molecule
H  -0.540 0.394 0.000
H  1.237 0.139 0.000
H  0.132 0.268 0.000
3
A molecule
H  -0.493 0.406 0.000
H  1.227 0.153 0.000
H  0.094 0.241 0.000
3
A molecule
H  -0.479 0.431 0.000
H  1.214 0.168 0.000
H  0.094 0.201 0.000
3
A molecule
H  -0.491 0.463 0.000
H  1.197 0.183 0.000
H  0.122 0.154 0.000
3
A molecule
H  -0.461 0.474 0.000
H  1.176 0.198 0.000
H  0.113 0.128 0.000
3
A molecule
H  -0.399 0.467 0.000
H  1.151 0.212 0.000
H  0.077 0.121 0.000
3
A molecule
H  -0.388 0.498 0.000
H  1.120 0.226 0.000
H  0.097 0.075 0.000
3
A molecule
H  -0.372 0.523 0.000
H  1.083 0.240 0.000
H  0.117 0.037 0.000
3
A molecule
H  -0.322 0.515 0.000
H  1.039 0.252 0.000
H  0.112 0.033 0.000
3
A molecule
H  -0.261 0.497 0.000
H  0.984 0.261 0.000
H  0.106 0.042 0.000
3
A molecule
H  -0.243 0.532 0.000
H  0.913 0.268 0.000
H  0.159 -0.000 0.000
3
A molecule
H  -0.202 0.540 0.000
H  0.812 0.264 0.000
H  0.219 -0.004 0.000
3
A molecule
H  -0.127 0.509 0.000
H  0.746 0.284 0.000
H  0.210 0.007 0.000
3
A molecule
H  -0.063 0.524 0.000
H  0.758 0.352 0.000
H  0.133 -0.076 0.000
3
A molecule
H  0.011 0.553 0.000
H  0.718 0.405 0.000
H  0.099 -0.158 0.000
3
A molecule
H  0.105 0.533 0.000
H  0.646 0.446 0.000
H  0.077 -0.179 0.000
3
A molecule
H  0.009 0.498 0.000
H  0.750 0.441 0.000
H  0.069 -0.139 0.000
3
A molecule
H  -0.065 0.473 0.000
H  0.816 0.429 0.000
H  0.078 -0.102 0.000
3
A molecule
H  -0.138 0.520 0.000
H  0.855 0.409 0.000
H  0.111 -0.129 0.000
3
A molecule
H  -0.187 0.527 0.000
H  0.875 0.383 0.000
H  0.140 -0.110 0.000
3
A molecule
H  -0.210 0.492 0.000
H  0.878 0.348 0.000
H  0.160 -0.040 0.000
3
A molecule
H  -0.229 0.449 0.000
H  0.853 0.302 0.000
H  0.204 0.049 0.000
3
A molecule
H  -0.286 0.451 0.000
H  0.830 0.256 0.000
H  0.285 0.093 0.000
3
A molecule
H  -0.311 0.433 0.000
H  0.946 0.256 0.000
H  0.194 0.111 0.000
3
A molecule
H  -0.371 0.438 0.000
H  1.029 0.250 0.000
H  0.170 0.113 0.000
3
A molecule
H  -0.430 0.443 0.000
H  1.093 0.241 0.000
H  0.166 0.116 0.000
3
A molecule
H  -0.449 0.427 0.000
H  1.147 0.231 0.000
H  0.131 0.143 0.000
3
A molecule
H  -0.454 0.403 0.000
H  1.193 0.220 0.000
H  0.089 0.178 0.000
3
A molecule
H  -0.515 0.402 0.000
H  1.235 0.209 0.000
H  0.109 0.189 0.000
3
A molecule
H  -0.547 0.393 0.000
H  1.274 0.198 0.000
H  0.101 0.210 0.000
3
A molecule
H  -0.537 0.371 0.000
H  1.311 0.187 0.000
H  0.055 0.242 0.000
3
A molecule
H  -0.566 0.356 0.000
H  1.346 0.176 0.000
H  0.048 0.268 0.000
3
A molecule
H  -0.613 0.345 0.000
H  1.379 0.165 0.000
H  0.062 0.289 0.000
3
A molecule
H  -0.615 0.331 0.000
H  1.412 0.155 0.000
H  0.032 0.314 0.000
3
A molecule
H  -0.601 0.315 0.000
H  1.444 0.144 0.000
H  -0.014 0.341 0.000
3
A molecule
H  -0.651 0.297 0.000
H  1.475 0.133 0.000
H  0.004 0.369 0.000
3
A molecule
H  -0.670 0.283 0.000
H  1.505 0.123 0.000
H  -0.007 0.394 0.000
3
A molecule
H  -0.648 0.276 0.000
H  1.536 0.113 0.000
H  -0.059 0.411 0.000
3
A molecule
H  -0.666 0.258 0.000
H  1.566 0.102 0.000
H  -0.071 0.440 0.000
3
A molecule
H  -0.701 0.236 0.000
H  1.595 0.092 0.000
H  -0.066 0.472 0.000
3
A molecule
H  -0.693 0.230 0.000
H  1.625 0.082 0.000
H  -0.103 0.488 0.000
3
A molecule
H  -0.674 0.228 0.000
H  1.654 0.072 0.000
H  -0.152 0.500 0.000
3
A molecule
H  -0.710 0.198 0.000
H  1.684 0.061 0.000
H  -0.145 0.541 0.000
3
A molecule
H  -0.719 0.185 0.000
H  1.713 0.051 0.000
H  -0.165 0.564 0.000
3
A molecule
H  -0.694 0.195 0.000
H  1.742 0.041 0.000
H  -0.220 0.564 0.000
3
A molecule
H  -0.704 0.176 0.000
H  1.771 0.031 0.000
H  -0.238 0.594 0.000
3
A molecule
H  -0.725 0.149 0.000
H  1.800 0.021 0.000
H  -0.247 0.630 0.000
3
A molecule
H  -0.713 0.156 0.000
H  1.829 0.011 0.000
H  -0.288 0.634 0.000
3
A molecule
H  -0.695 0.166 0.000
H  1.858 0.001 0.000
H  -0.334 0.633 0.000
3
A molecule
H  -0.715 0.130 0.000
H  1.887 -0.010 0.000
H  -0.343 0.680 0.000
3
A molecule
H  -0.715 0.123 0.000
H  1.915 -0.020 0.000
H  -0.372 0.697 0.000
3
A molecule
H  -0.695 0.150 0.000
H  1.944 -0.030 0.000
H  -0.421 0.680 0.000
3
A molecule
H  -0.698 0.131 0.000
H  1.973 -0.040 0.000
H  -0.447 0.709 0.000
3
A molecule
H  -0.703 0.107 0.000
H  2.002 -0.050 0.000
H  -0.470 0.743 0.000
3
A molecule
H  -0.694 0.126 0.000
H  2.030 -0.060 0.000
H  -0.508 0.734 0.000
3
A molecule
H  -0.682 0.146 0.000
H  2.059 -0.070 0.000
H  -0.549 0.724 0.000
3
A molecule
H  -0.684 0.111 0.000
H  2.088 -0.080 0.000
H  -0.575 0.769 0.000
3
A molecule
H  -0.680 0.114 0.000
H  2.117 -0.090 0.000
H  -0.608 0.776 0.000
3
A molecule
H  -0.672 0.154 0.000
H  2.145 -0.100 0.000
H  -0.644 0.746 0.000
3
A molecule
H  -0.666 0.138 0.000
H  2.174 -0.110 0.000
H  -0.680 0.773 0.000
3
A molecule
H  -0.661 0.122 0.000
H  2.203 -0.120 0.000
H  -0.714 0.798 0.000
3
A molecule
H  -0.659 0.152 0.000
H  2.231 -0.130 0.000
H  -0.744 0.778 0.000
3
A molecule
H  -0.655 0.178 0.000
H  2.260 -0.140 0.000
H  -0.776 0.762 0.000
3
A molecule
H  -0.642 0.153 0.000
H  2.289 -0.150 0.000
H  -0.818 0.798 0.000
3
A molecule
H  -0.640 0.165 0.000
H  2.317 -0.161 0.000
H  -0.849 0.795 0.000
3
A molecule
H  -0.648 0.212 0.000
H  2.346 -0.171 0.000
H  -0.869 0.759 0.000
3
A molecule
H  -0.633 0.203 0.000
H  2.375 -0.181 0.000
H  -0.913 0.778 0.000
3
A molecule
H  -0.622 0.199 0.000
H  2.403 -0.191 0.000
H  -0.952 0.791 0.000
3
A molecule
H  -0.634 0.236 0.000
H  2.432 -0.201 0.000
H  -0.970 0.765 0.000
3
A molecule
H  -0.638 0.264 0.000
H  2.460 -0.211 0.000
H  -0.994 0.747 0.000
3
A molecule
H  -0.615 0.253 0.000
H  2.489 -0.221 0.000
H  -1.045 0.768 0.000
3
A molecule
H  -0.619 0.274 0.000
H  2.518 -0.231 0.000
H  -1.070 0.757 0.000
3
A molecule
H  -0.645 0.319 0.000
H  2.546 -0.241 0.000
H  -1.073 0.722 0.000
3
A molecule
H  -0.625 0.321 0.000
H  2.575 -0.251 0.000
H  -1.122 0.730 0.000
